@<TRIPOS>MOLECULE
NOT
   39    39     1     0     0
SMALL
bcc


@<TRIPOS>ATOM
      1 N           45.8100    43.8100    44.1000 n3         1 NOT      -0.731600
      2 C           46.0000    42.5500    44.8500 c3         1 NOT       0.166300
      3 O           44.9300    40.3300    42.7200 o          1 NOT      -0.870800
      4 C1          44.7400    41.9100    45.6600 c3         1 NOT       0.166300
      5 N1          43.4300    42.0000    44.8700 n3         1 NOT      -0.731600
      6 O1          44.0600    42.3200    42.4200 o          1 NOT      -0.870800
      7 C2          42.2900    42.7200    45.5400 c3         1 NOT       0.166300
      8 N2          42.9700    44.9300    44.4800 n3         1 NOT      -0.731600
      9 O2          45.3400    44.7400    41.6200 o          1 NOT      -0.870800
     10 C3          42.6700    44.2200    45.7400 c3         1 NOT       0.166300
     11 O3          47.1900    45.6900    41.6300 o          1 NOT      -0.870800
     12 C4          44.2800    45.6900    44.5400 c3         1 NOT       0.166300
     13 O4          42.5200    44.6800    42.0000 o          1 NOT      -0.870800
     14 C5          45.5900    44.9500    44.9800 c3         1 NOT       0.166300
     15 O5          42.3300    46.8000    42.1800 o          1 NOT      -0.870800
     16 C6          46.8700    43.9700    43.1600 c3         1 NOT       0.069133
     17 C7          46.4200    44.8800    42.1500 c          1 NOT       0.904267
     18 C8          43.1300    41.0300    43.8700 c3         1 NOT       0.069133
     19 C9          44.1200    41.2400    42.9100 c          1 NOT       0.904267
     20 C10         41.8400    45.6300    43.9100 c3         1 NOT       0.069133
     21 C11         41.9500    45.6700    42.4400 c          1 NOT       0.904267
     22 HC10        44.4900    46.3000    43.6500 h1         1 NOT       0.034700
     23 HC11        44.1100    46.4700    45.3000 h1         1 NOT       0.034700
     24 HC12        45.5800    44.5200    45.9900 h1         1 NOT       0.034700
     25 HC13        46.4000    45.6900    45.0000 h1         1 NOT       0.034700
     26 HC14        46.9200    43.0600    42.5600 h1         1 NOT       0.013867
     27 HC15        47.7700    44.3600    43.6600 h1         1 NOT       0.013867
     28 HC16        43.2000    40.0100    44.2600 h1         1 NOT       0.013867
     29 HC17        42.1900    41.2200    43.3400 h1         1 NOT       0.013867
     30 HC18        41.6400    46.6200    44.3300 h1         1 NOT       0.013867
     31 HC19        41.0000    44.9300    44.0300 h1         1 NOT       0.013867
     32 HC2         46.3200    41.7900    44.1300 h1         1 NOT       0.034700
     33 HC3         46.8300    42.7300    45.5600 h1         1 NOT       0.034700
     34 HC4         44.6500    42.3800    46.6400 h1         1 NOT       0.034700
     35 HC5         45.0100    40.9000    45.9700 h1         1 NOT       0.034700
     36 HC6         41.9900    42.1300    46.4100 h1         1 NOT       0.034700
     37 HC7         41.4000    42.7900    44.8900 h1         1 NOT       0.034700
     38 HC8         43.4600    44.3400    46.4900 h1         1 NOT       0.034700
     39 HC9         41.8200    44.6700    46.2600 h1         1 NOT       0.034700
@<TRIPOS>BOND
     1     1     2 1   
     2     1    14 1   
     3     1    16 1   
     4     2     4 1   
     5     2    32 1   
     6     2    33 1   
     7     3    19 1   
     8     4     5 1   
     9     4    34 1   
    10     4    35 1   
    11     5     7 1   
    12     5    18 1   
    13     6    19 1   
    14     7    10 1   
    15     7    36 1   
    16     7    37 1   
    17     8    10 1   
    18     8    12 1   
    19     8    20 1   
    20     9    17 1   
    21    10    38 1   
    22    10    39 1   
    23    11    17 1   
    24    12    14 1   
    25    12    22 1   
    26    12    23 1   
    27    13    21 1   
    28    14    24 1   
    29    14    25 1   
    30    15    21 1   
    31    16    17 1   
    32    16    26 1   
    33    16    27 1   
    34    18    19 1   
    35    18    28 1   
    36    18    29 1   
    37    20    21 1   
    38    20    30 1   
    39    20    31 1   
@<TRIPOS>SUBSTRUCTURE
     1 NOT         1 TEMP              0 ****  ****    0 ROOT
